/*---------------------------------------------------------------------------*\
| =========                 |                                                 |
| \\      /  F ield         | OpenFOAM: The Open Source CFD Toolbox           |
|  \\    /   O peration     | Version:  2312                                  |
|   \\  /    A nd           | Website:  www.openfoam.com                      |
|    \\/     M anipulation  |                                                 |
\*---------------------------------------------------------------------------*/
Build  : _9a9aeb73-20260127 OPENFOAM=2312 patch=260127 version=2312
Arch   : "LSB;label=32;scalar=64"
Exec   : checkMesh
Date   : May 25 2026
Time   : 23:48:35
Host   : perceptron
PID    : 2454630
I/O    : uncollated
Case   : /home/sina/Downloads/ece_proje/project/analytical-design/cases/design_v0
nProcs : 1
trapFpe: Floating point exception trapping enabled (FOAM_SIGFPE).
fileModificationChecking : Monitoring run-time modified files using timeStampMaster (fileModificationSkew 5, maxFileModificationPolls 20)
allowSystemOperations : Allowing user-supplied system call operations

// * * * * * * * * * * * * * * * * * * * * * * * * * * * * * * * * * * * * * //
Create time

Create mesh for time = 0

Check mesh...

Time = 0

Mesh stats 
    points:           6507
    faces:            13936
    internal faces:   9104
    cells:            3840
    faces per cell:   6
    boundary patches: 7
    point zones:      0
    face zones:       0
    cell zones:       0

Overall number of cells of each type:
    hexahedra:     3840
    prisms:        0
    wedges:        0
    pyramids:      0
    tet wedges:    0
    tetrahedra:    0
    polyhedra:     0

Checking topology...
    Boundary definition OK.
    Cell to face addressing OK.
    Point usage OK.
    Upper triangular ordering OK.
    Face vertices OK.
    Number of regions: 1 (OK).

Checking patch topology for multiply connected surfaces...
    Patch               Faces    Points     Surface topology
    inlet               16       27       ok (non-closed singly connected)  
    outlet_inner        8        15       ok (non-closed singly connected)  
    outlet_outer        8        15       ok (non-closed singly connected)  
    inner_electrode     480      723      ok (non-closed singly connected)  
    outer_electrode     480      723      ok (non-closed singly connected)  
    top_wall            1920     2169     ok (non-closed singly connected)  
    bottom_wall         1920     2169     ok (non-closed singly connected)  
    ".*"                4832     4834     ok (closed singly connected)      


Checking faceZone topology for multiply connected surfaces...
    No faceZones found.

Checking basic cellZone addressing...
    No cellZones found.

Checking basic pointZone addressing...
    No pointZones found.

Checking geometry...
    Overall domain bounding box (-0.0015099883 -0.001554989 0) (0.0015998995 0.0014649876 5e-05)
    Mesh has 3 geometric (non-empty/wedge) directions (1 1 1)
    Mesh has 3 solution (non-empty) directions (1 1 1)
    Boundary openness (-3.0460211e-19 -1.3339034e-17 1.8522347e-16) OK.
    Max cell openness = 2.8130114e-16 OK.
    Max aspect ratio = 7.0084028 OK.
    Minimum face area = 3.75e-10. Maximum face area = 3.1347246e-09.  Face area magnitudes OK.
    Min volume = 2.7987525e-14. Max volume = 4.676385e-14.  Total volume = 1.4352337e-10.  Cell volumes OK.
    Mesh non-orthogonality Max: 1.1531408 average: 0.062483126
    Non-orthogonality check OK.
    Face pyramids OK.
    Max skewness = 0.098276062 OK.
    Coupled point location match (average 0) OK.

Mesh OK.

End

/*---------------------------------------------------------------------------*\
| =========                 |                                                 |
| \\      /  F ield         | OpenFOAM: The Open Source CFD Toolbox           |
|  \\    /   O peration     | Version:  2312                                  |
|   \\  /    A nd           | Website:  www.openfoam.com                      |
|    \\/     M anipulation  |                                                 |
\*---------------------------------------------------------------------------*/
Build  : _9a9aeb73-20260127 OPENFOAM=2312 patch=260127 version=2312
Arch   : "LSB;label=32;scalar=64"
Exec   : laplacianFoam
Date   : May 25 2026
Time   : 23:48:35
Host   : perceptron
PID    : 2454639
I/O    : uncollated
Case   : /home/sina/Downloads/ece_proje/project/analytical-design/cases/design_v0
nProcs : 1
trapFpe: Floating point exception trapping enabled (FOAM_SIGFPE).
fileModificationChecking : Monitoring run-time modified files using timeStampMaster (fileModificationSkew 5, maxFileModificationPolls 20)
allowSystemOperations : Allowing user-supplied system call operations

// * * * * * * * * * * * * * * * * * * * * * * * * * * * * * * * * * * * * * //
Create time

Create mesh for time = 0


SIMPLE: no convergence criteria found. Calculations will run for 1 steps.

Reading field T

Reading diffusivity DT

No finite volume options present

Calculating temperature distribution

Time = 1

DICPCG:  Solving for T, Initial residual = 1, Final residual = 3.3127437e-11, No Iterations 17
DICPCG:  Solving for T, Initial residual = 5.1186872e-07, Final residual = 3.157003e-11, No Iterations 7
DICPCG:  Solving for T, Initial residual = 4.7716554e-10, Final residual = 6.8258184e-11, No Iterations 1
ExecutionTime = 0.03 s  ClockTime = 0 s

End

